# Molecule Name
# Created by GaussView 5.0.8
#

#
#

@<TRIPOS>MOLECULE
Molecule Name
19 21
SMALL
NO_CHARGES


@<TRIPOS>ATOM
1 C1     0.7593    -0.5127    -0.0015 C
2 C2     1.1439     0.7469     0.0664 C
3 C3    -1.1440     0.7345     0.0662 C
4 C4    -0.7458    -0.5208    -0.0017 C
5 C5    -2.6787     0.8729     0.0739 C
6 C6    -3.2646    -0.3438     0.0025 C
7 H7    -3.2111     1.7977     0.1528 H
8 C8     2.6770     0.9020     0.0746 C
9 H9     3.1992     1.8341     0.1332 H
10 C10     3.2754    -0.3026     0.0035 C
11 S11     2.0903    -1.6607    -0.0288 S
12 S12    -2.0642    -1.6833    -0.0293 S
13 N13    -0.0052     1.6893    -0.1106 N
14 C14    -0.0537     3.1580    -0.0700 C
15 H15     0.7086     3.5577    -0.7056 H
16 H16    -1.0120     3.4927    -0.4083 H
17 H17     0.1071     3.4925     0.9336 H
18 Sg18    -4.5399    -0.5100     0.1923 Sg
19 Bh19     4.5540    -0.4479     0.1884 Bh
@<TRIPOS>BOND
1 1 2 2
2 1 4 1
3 1 11 1
4 2 8 1
5 2 13 1
6 3 4 2
7 3 5 1
8 3 13 1
9 4 12 1
10 5 6 2
11 5 7 1
12 6 12 1
13 6 18 1
14 8 9 1
15 8 10 2
16 10 11 1
17 10 19 1
18 13 14 1
19 14 15 1
20 14 16 1
21 14 17 1
