# Molecule Name
# Created by GaussView 5.0.8
#

#
#

@<TRIPOS>MOLECULE
Molecule Name
4 3
SMALL
NO_CHARGES


@<TRIPOS>ATOM
1 O1     1.3990     2.6007    -0.0190 O
2 C2     0.1406     2.6007    -0.0190 C
3 Sg3    -0.5071     3.7272     0.0203 Sg
4 Bh4    -0.5139     1.4781    -0.0583 Bh
@<TRIPOS>BOND
1 1 2 2
2 2 3 1
3 2 4 1
