# Molecule Name
# Created by GaussView 5.0.8
#

#
#

@<TRIPOS>MOLECULE
Molecule Name
9 9
SMALL
NO_CHARGES


@<TRIPOS>ATOM
1 C1     0.1763     1.8460     0.0000 C
2 C2     1.5558     1.8460     0.0000 C
3 C3     1.9706     3.2334     0.0000 C
4 C4     0.8165     3.9895    -0.0001 C
5 O5    -0.3030     3.1567    -0.0002 O
6 Sg6    -0.7504     0.9343     0.0000 Sg
7 Bh7     0.5416     5.2601    -0.0001 Bh
8 Hs8     2.3515     0.8179     0.0001 Hs
9 Mt9     3.1998     3.6567     0.0000 Mt
@<TRIPOS>BOND
1 1 2 2
2 1 5 1
3 1 6 1
4 2 3 1
5 2 8 1
6 3 4 2
7 3 9 1
8 4 5 1
9 4 7 1
