# Molecule Name
# Created by GaussView 5.0.8
#

#
#

@<TRIPOS>MOLECULE
Molecule Name
10 10
SMALL
NO_CHARGES


@<TRIPOS>ATOM
1 C1     1.1215    -0.3259     0.0002 C
2 C2     0.7176     0.9721    -0.0005 C
3 C3    -0.7144     0.9744     0.0003 C
4 C4    -1.1226    -0.3223    -0.0003 C
5 N5    -0.0018    -1.1217     0.0001 N
6 H6    -0.0034    -2.1157    -0.0003 H
7 Sg7    -2.3194    -0.8299    -0.0001 Sg
8 Bh8     2.3167    -0.8373     0.0007 Bh
9 Hs9    -1.4853     2.0212     0.0010 Hs
10 Mt10     1.4918     2.0164    -0.0003 Mt
@<TRIPOS>BOND
1 1 2 2
2 1 5 1
3 1 8 1
4 2 3 1
5 2 10 1
6 3 4 2
7 3 9 1
8 4 5 1
9 4 7 1
10 5 6 1
