# Molecule Name
# Created by GaussView 5.0.8
#

#
#

@<TRIPOS>MOLECULE
Molecule Name
6 5
SMALL
NO_CHARGES


@<TRIPOS>ATOM
1 C1     0.0000     0.0000     0.0000 C
2 H2     1.0867     0.0000     0.0000 H
3 C3    -0.6771     1.1717     0.0000 C
4 H4    -1.7636     1.1457     0.0015 H
5 Sg5    -0.1596     2.3642    -0.0006 Sg
6 Bh6    -0.5152    -1.1936     0.0000 Bh
@<TRIPOS>BOND
1 1 2 1
2 1 3 2
3 1 6 1
4 3 4 1
5 3 5 1
