# Molecule Name
# Created by GaussView 5.0.8
#

#
#

@<TRIPOS>MOLECULE
Molecule Name
4 3
SMALL
NO_CHARGES


@<TRIPOS>ATOM
1 C1     0.8021     0.0590    -0.0002 C
2 C2     1.6084     1.1458    -0.0004 C
3 Sg3     2.3830     2.1898    -0.0007 Sg
4 Bh4     0.0274    -0.9850     0.0000 Bh
@<TRIPOS>BOND
1 1 2 3
2 1 4 1
3 2 3 1
