# Molecule Name
# Created by GaussView 3.09
#

#
#

@<TRIPOS>MOLECULE
Molecule Name
12 12
SMALL
NO_CHARGES


@<TRIPOS>ATOM
1 C1     0.0509     0.0309     0.0002 C
2 C2     1.4592     0.0309     0.0002 C
3 C3    -0.6045     1.2792     0.0002 C
4 C4     2.1849     1.2200    -0.0004 C
5 H5     1.9850    -0.9213     0.0004 H
6 C6     0.1195     2.4666    -0.0004 C
7 C7     1.5181     2.4458    -0.0008 C
8 H8    -0.4090     3.4165    -0.0003 H
9 Sg9     3.4844     1.1831    -0.0005 Sg
10 Bh10    -1.9035     1.3287     0.0016 Bh
11 Hs11     2.1896     3.5590    -0.0012 Hs
12 Mt12    -0.5708    -1.1107     0.0005 Mt
@<TRIPOS>BOND
1 1 2 Ar
2 1 3 Ar
3 1 12 1
4 2 4 Ar
5 2 5 1
6 3 6 Ar
7 3 10 1
8 4 7 Ar
9 4 9 1
10 6 7 Ar
11 6 8 1
12 7 11 1
