# Molecule Name
# Created by GaussView 3.09
#

#
#

@<TRIPOS>MOLECULE
Molecule Name
9 9
SMALL
NO_CHARGES


@<TRIPOS>ATOM
1 C1    -2.0792    -1.7080    -0.0002 C
2 C2    -0.7020    -1.7080    -0.0002 C
3 C3    -0.1766    -0.3757    -0.0002 C
4 C4    -1.1831     0.5643     0.0006 C
5 S5    -2.6937    -0.1528     0.0006 S
6 Sg6    -2.8374    -2.7640    -0.0008 Sg
7 Bh7    -1.0166     1.8536     0.0014 Bh
8 Hs8     0.0503    -2.7682    -0.0004 Hs
9 Mt9     1.0969    -0.1143    -0.0009 Mt
@<TRIPOS>BOND
1 1 2 2
2 1 5 1
3 1 6 1
4 2 3 1
5 2 8 1
6 3 4 2
7 3 9 1
8 4 5 1
9 4 7 1
