# Molecule Name
# Created by GaussView 3.09
#

#
#

@<TRIPOS>MOLECULE
Molecule Name
11 11
SMALL
NO_CHARGES


@<TRIPOS>ATOM
1 C1    -4.5775    -2.0270     0.0001 C
2 C2    -3.1706    -2.0270     0.0001 C
3 C3    -2.5039    -0.8004     0.0001 C
4 C4    -3.2580     0.3743    -0.0001 C
5 C5    -4.6612     0.2715    -0.0003 C
6 N6    -5.3207    -0.9034    -0.0001 N
7 H7    -1.4054    -0.7607    -0.0009 H
8 Sg8    -2.5135    -3.1487     0.0004 Sg
9 Bh9    -5.4065     1.3366    -0.0004 Bh
10 Hs10    -5.2431    -3.1437     0.0002 Hs
11 Mt11    -2.6846     1.5410    -0.0003 Mt
@<TRIPOS>BOND
1 1 2 Ar
2 1 6 Ar
3 1 10 1
4 2 3 Ar
5 2 8 1
6 3 4 Ar
7 3 7 1
8 4 5 Ar
9 4 11 1
10 5 6 Ar
11 5 9 1
