# Title Card Required
# Created by GaussView 3.09
#

#
#

@<TRIPOS>MOLECULE
Molecule Name
23 25
SMALL
NO_CHARGES


@<TRIPOS>ATOM
1 C1     0.4459     0.1266     0.0324 C
2 C2     1.8376     0.1266     0.0324 C
3 C3     2.5579     1.3305     0.0324 C
4 C4     1.8581     2.5219     0.0324 C
5 C5     0.4291     2.5228     0.0324 C
6 C6    -0.2738     1.3295     0.0323 C
7 H7    -0.1009    -0.8280     0.0325 H
8 H8     3.6568     1.3184     0.0325 H
9 H9    -1.3728     1.3220     0.0322 H
10 C10     2.3745     3.9344     0.0326 C
11 C11     1.1185     4.7618     0.0326 C
12 C12     0.9715     6.1357     0.0327 C
13 C13    -0.3241     6.6740     0.0325 C
14 C14    -1.4422     5.8454     0.0327 C
15 C15    -1.3042     4.4504     0.0326 C
16 C16    -0.0290     3.9102     0.0325 C
17 H17     1.8471     6.7996     0.0327 H
18 H18    -2.4499     6.2867     0.0329 H
19 H19    -2.1917     3.8022     0.0325 H
20 Sg20     2.4840    -1.0013     0.0324 Sg
21 Bh21    -0.4763     7.9651     0.0323 Bh
22 Mt22     3.0957     4.1726    -1.0225 Mt
23 Hs23     3.0957     4.1724     1.0877 Hs
@<TRIPOS>BOND
1 1 2 Ar
2 1 6 Ar
3 1 7 1
4 2 3 Ar
5 2 20 1
6 3 4 2
7 3 8 1
8 4 5 Ar
9 4 10 1
10 5 6 2
11 5 16 1
12 6 9 1
13 10 11 1
14 10 22 1
15 10 23 1
16 11 12 2
17 11 16 Ar
18 12 13 Ar
19 12 17 1
20 13 14 Ar
21 13 21 1
22 14 15 Ar
23 14 18 1
24 15 16 2
25 15 19 1
