# Title Card Required
# Created by GaussView 3.09
#

#
#

@<TRIPOS>MOLECULE
Molecule Name
8 8
SMALL
NO_CHARGES


@<TRIPOS>ATOM
1 C1    -0.0089    -0.0179    -0.0000 C
2 N2     1.3522    -0.0179    -0.0000 N
3 C3     1.1968     2.3931    -0.0000 C
4 N4    -0.8254     1.0712    -0.0000 N
5 N5     1.9401     1.1968    -0.0000 N
6 N6    -0.2061     2.2702    -0.0001 N
7 Sg7    -0.5904    -1.1806    -0.0000 Sg
8 Bh8     1.7783     3.5558     0.0000 Bh
@<TRIPOS>BOND
1 1 2 2
2 1 4 1
3 1 7 1
4 2 5 1
5 3 5 2
6 3 6 1
7 3 8 1
8 4 6 2
