# Molecule Name
# Created by GaussView 3.09
#

#
#

@<TRIPOS>MOLECULE
Molecule Name
15 16
SMALL
NO_CHARGES


@<TRIPOS>ATOM
1 C1     0.0190    -0.1976     0.0001 C
2 C2     1.4648    -0.1976     0.0001 C
3 C3     1.4370     2.1953     0.0001 C
4 C4     0.0470     2.1953     0.0002 C
5 C5    -0.4080    -1.5913    -0.0001 C
6 C6     1.8918    -1.5912    -0.0000 C
7 H7     1.7485     2.7473     0.8622 H
8 H8    -0.2644     2.7473    -0.8619 H
9 S9     0.7416    -2.4028    -0.0002 S
10 O10    -0.6795     0.9929     0.0002 O
11 O11     2.1635     0.9928    -0.0000 O
12 H12    -0.2643     2.7473     0.8623 H
13 H13     1.7483     2.7473    -0.8621 H
14 Sg14     3.1302    -1.9866     0.0002 Sg
15 Bh15    -1.6465    -1.9863    -0.0001 Bh
@<TRIPOS>BOND
1 1 2 1
2 1 5 2
3 1 10 1
4 2 6 2
5 2 11 1
6 3 4 1
7 3 7 1
8 3 11 1
9 3 13 1
10 4 8 1
11 4 10 1
12 4 12 1
13 5 9 1
14 5 15 1
15 6 9 1
16 6 14 1
