# Molecule Name
# Created by GaussView 5.0.8
#

#
#

@<TRIPOS>MOLECULE
Molecule Name
16 18
SMALL
NO_CHARGES


@<TRIPOS>ATOM
1 C1    -0.0238    -0.0390    -0.0001 C
2 C2     1.3872    -0.0390    -0.0001 C
3 C3    -0.8483     1.0926    -0.0001 C
4 C4     2.1628     1.1487     0.0000 C
5 C5    -0.0726     2.2803    -0.0001 C
6 C6     1.3384     2.2803     0.0001 C
7 C7     0.7549    -2.0781    -0.0003 C
8 C8     0.5596     4.3194    -0.0002 C
9 Sg9     0.6308    -3.3722    -0.0004 Sg
10 Bh10     0.6837     5.6135    -0.0003 Bh
11 Hs11     3.4618     1.0968     0.0002 Hs
12 Mt12    -2.1473     1.1445    -0.0001 Mt
13 Ge13    -0.5207     3.5895    -0.0002 Ge
14 Ge14    -0.4210    -1.3535    -0.0002 Ge
15 As15     1.8353    -1.3482    -0.0002 As
16 As16     1.7356     3.5948     0.0001 As
@<TRIPOS>BOND
1 1 2 Ar
2 1 3 Ar
3 1 14 1
4 2 4 Ar
5 2 15 1
6 3 5 Ar
7 3 12 1
8 4 6 Ar
9 4 11 1
10 5 6 Ar
11 5 13 1
12 6 16 1
13 7 9 1
14 7 14 1
15 7 15 2
16 8 10 1
17 8 13 1
18 8 16 2
