# Molecule Name
# Created by GaussView 3.09
#

#
#

@<TRIPOS>MOLECULE
Molecule Name
4 3
SMALL
NO_CHARGES


@<TRIPOS>ATOM
1 C1    -3.3785     1.4286     0.0000 C
2 C2    -2.1773     1.4286     0.0000 C
3 H3    -1.1073     1.4286     0.0000 H
4 Sg4    -4.6785     1.4286     0.0000 Sg
@<TRIPOS>BOND
1 1 2 3
2 1 4 1
3 2 3 1
