# Molecule Name
# Created by GaussView 5.0.8
#

#
#

@<TRIPOS>MOLECULE
Molecule Name
16 17
SMALL
NO_CHARGES


@<TRIPOS>ATOM
1 C1    -0.1833     0.2556    -0.0002 C
2 C2     1.2277     0.2556    -0.0002 C
3 C3    -1.0078     1.3872    -0.0002 C
4 C4     2.0033     1.4433    -0.0001 C
5 C5    -0.2321     2.5749    -0.0002 C
6 C6     1.1789     2.5749     0.0000 C
7 C7     0.5954    -1.7835    -0.0004 C
8 Bh8     0.4873    -3.0790    -0.0005 Bh
9 Hs9    -2.3068     1.4391    -0.0002 Hs
10 Mt10     3.3023     1.3914    -0.0001 Mt
11 H11     2.6903    -1.3937    -0.0003 H
12 H12    -1.5474    -1.2891     0.1096 H
13 Ge13    -0.5805    -1.0589    -0.0003 Ge
14 As14     1.6758    -1.0536    -0.0003 As
15 H15     1.6641     3.5286     0.0003 H
16 Sg16    -0.8508     3.7182    -0.0004 Sg
@<TRIPOS>BOND
1 1 2 Ar
2 1 3 Ar
3 1 13 1
4 2 4 Ar
5 2 14 1
6 3 5 Ar
7 3 9 1
8 4 6 Ar
9 4 10 1
10 5 6 Ar
11 5 16 1
12 6 15 1
13 7 8 1
14 7 13 1
15 7 14 2
16 11 14 1
17 12 13 1
