# Title Card Required
# Created by GaussView 3.09
#

#
#

@<TRIPOS>MOLECULE
Molecule Name
3 2
SMALL
NO_CHARGES


@<TRIPOS>ATOM
1 S1    -0.1519     0.4289     0.0000 S
2 H2     1.1581     0.4289     0.0000 H
3 Sg3    -0.5858     1.6543     0.0000 Sg
@<TRIPOS>BOND
1 1 2 1
2 1 3 1
