# Title Card Required
# Created by GaussView 3.09
#

#
#

@<TRIPOS>MOLECULE
Molecule Name
12 12
SMALL
NO_CHARGES


@<TRIPOS>ATOM
1 C1     0.1674    -0.2902     0.0004 C
2 C2     1.5626    -0.2902     0.0004 C
3 C3     2.2601     0.9176     0.0004 C
4 C4     1.5624     2.1261    -0.0008 C
5 C5     0.1676     2.1260    -0.0013 C
6 C6    -0.5300     0.9178    -0.0003 C
7 H7    -0.3824    -1.2425     0.0009 H
8 H8     3.3598     0.9177     0.0010 H
9 H9     2.1126     3.0782    -0.0009 H
10 H10    -0.3825     3.0783    -0.0022 H
11 H11    -1.6296     0.9180    -0.0005 H
12 Sg12     2.2122    -1.4162     0.0020 Sg
@<TRIPOS>BOND
1 1 2 Ar
2 1 6 Ar
3 1 7 1
4 2 3 Ar
5 2 12 1
6 3 4 Ar
7 3 8 1
8 4 5 Ar
9 4 9 1
10 5 6 Ar
11 5 10 1
12 6 11 1
