# Molecule Name
# Created by GaussView 3.09
#

#
#

@<TRIPOS>MOLECULE
Molecule Name
14 13
SMALL
NO_CHARGES


@<TRIPOS>ATOM
1 Si1    -0.1783    -0.5044    -0.0010 Si
2 C2     1.7617    -0.5044    -0.0010 C
3 H3     2.1183     0.5044    -0.0010 H
4 H4     2.1183    -1.0088     0.8727 H
5 H5     2.1183    -1.0088    -0.8746 H
6 C6    -0.8250     0.4132    -1.5832 C
7 H7    -0.4682    -0.0894    -2.4578 H
8 H8    -1.8950     0.4130    -1.5833 H
9 H9    -0.4685     1.4221    -1.5811 H
10 C10    -0.8250     0.4070     1.5848 C
11 H11    -1.8950     0.4072     1.5847 H
12 H12    -0.4684    -0.0991     2.4575 H
13 H13    -0.4682     1.4158     1.5868 H
14 Sg14    -0.6117    -1.7301    -0.0034 Sg
@<TRIPOS>BOND
1 1 2 1
2 1 6 1
3 1 10 1
4 1 14 1
5 2 3 1
6 2 4 1
7 2 5 1
8 6 7 1
9 6 8 1
10 6 9 1
11 10 11 1
12 10 12 1
13 10 13 1
