# Title Card Required
# Created by GaussView 3.09
#

#
#

@<TRIPOS>MOLECULE
Molecule Name
6 5
SMALL
NO_CHARGES


@<TRIPOS>ATOM
1 O1    -0.0935    -0.2639    -0.0001 O
2 C2     1.3365    -0.2639    -0.0001 C
3 H3     1.6932     0.7449    -0.0001 H
4 H4     1.6932    -0.7683     0.8736 H
5 H5     1.6932    -0.7683    -0.8737 H
6 Sg6    -0.5274    -1.4894    -0.0003 Sg
@<TRIPOS>BOND
1 1 2 1
2 1 6 1
3 2 3 1
4 2 4 1
5 2 5 1
