# Molecule Name
# Created by GaussView 5.0.8
#

#
#

@<TRIPOS>MOLECULE
Molecule Name
20 22
SMALL
NO_CHARGES


@<TRIPOS>ATOM
1 C1    -0.0238    -0.0390    -0.0001 C
2 C2     1.3872    -0.0390    -0.0001 C
3 C3    -0.8483     1.0926    -0.0001 C
4 C4     2.1628     1.1487     0.0000 C
5 C5    -0.0726     2.2803    -0.0001 C
6 C6     1.3384     2.2803     0.0001 C
7 C7     0.7549    -2.0781    -0.0003 C
8 C8     0.5596     4.3194    -0.0002 C
9 Sg9     0.6681     5.6149    -0.0003 Sg
10 Bh10     0.6468    -3.3736    -0.0004 Bh
11 Hs11    -2.1473     1.1445    -0.0001 Hs
12 Mt12     3.4618     1.0968     0.0000 Mt
13 H13    -1.5352     3.9296    -0.0003 H
14 H14     2.8498    -1.6883    -0.0002 H
15 H15     2.7025     3.8250     0.1103 H
16 H16    -1.3879    -1.5837     0.1097 H
17 Ge17     1.7356     3.5948     0.0001 Ge
18 Ge18    -0.4210    -1.3535    -0.0002 Ge
19 As19    -0.5207     3.5895    -0.0002 As
20 As20     1.8353    -1.3482    -0.0002 As
@<TRIPOS>BOND
1 1 2 Ar
2 1 3 Ar
3 1 18 1
4 2 4 Ar
5 2 20 1
6 3 5 Ar
7 3 11 1
8 4 6 Ar
9 4 12 1
10 5 6 Ar
11 5 19 1
12 6 17 1
13 7 10 1
14 7 18 1
15 7 20 2
16 8 9 1
17 8 17 1
18 8 19 2
19 13 19 1
20 14 20 1
21 15 17 1
22 16 18 1
