# Molecule Name
# Created by GaussView 5.0.8
#

#
#

@<TRIPOS>MOLECULE
Molecule Name
17 18
SMALL
NO_CHARGES


@<TRIPOS>ATOM
1 C1    -0.0132    -0.0040    -0.0001 C
2 C2     1.3978    -0.0040    -0.0001 C
3 C3    -0.8377     1.1276    -0.0001 C
4 C4     2.1734     1.1837     0.0000 C
5 C5    -0.0620     2.3153    -0.0001 C
6 C6     1.3490     2.3153     0.0001 C
7 C7     0.7655    -2.0431    -0.0003 C
8 Bh8     0.6174    -3.3347    -0.0004 Bh
9 Hs9    -2.1367     1.1795    -0.0001 Hs
10 Mt10     3.4724     1.1318     0.0000 Mt
11 H11    -0.9875    -1.5390     0.8734 H
12 H12    -0.9902    -1.5318    -0.8738 H
13 H13     2.8604    -1.6533    -0.0002 H
14 Ge14    -0.4104    -1.3185    -0.0002 Ge
15 As15     1.8459    -1.3132    -0.0002 As
16 Sg16     1.7250     3.5598     0.0001 Sg
17 H17    -0.5713     3.2563    -0.0003 H
@<TRIPOS>BOND
1 1 2 Ar
2 1 3 Ar
3 1 14 1
4 2 4 Ar
5 2 15 1
6 3 5 Ar
7 3 9 1
8 4 6 Ar
9 4 10 1
10 5 6 Ar
11 5 17 1
12 6 16 1
13 7 8 1
14 7 14 1
15 7 15 2
16 11 14 1
17 12 14 1
18 13 15 1
